<?xml version="1.0" encoding="UTF-8"?>

<!-- generated on 2025-05-21 17:03:59.328364 by randomTrips.py UNKNOWN
<configuration>
    <net-file value="/home/aldo/Documents/UNAM/Posgrado/2025-II/RL/Proyecto/sumo_env/intersection.net.xml"/>
    <route-file value="/home/aldo/Documents/UNAM/Posgrado/2025-II/RL/Proyecto/sumo_env/routes.rou.xml"/>
    <prefix value="veh"/>
    <end value="1000.0"/>
    <period value="1.0"/>
</configuration>
-->

<routes xmlns:xsi="http://www.w3.org/2001/XMLSchema-instance" xsi:noNamespaceSchemaLocation="http://sumo.dlr.de/xsd/routes_file.xsd">
    <trip id="veh0" depart="0.00" from="B0B1" to="A0A1"/>
    <trip id="veh1" depart="1.00" from="A1A0" to="A0B0"/>
    <trip id="veh2" depart="2.00" from="B0B1" to="B0B1"/>
    <trip id="veh3" depart="3.00" from="B1B0" to="A0A1"/>
    <trip id="veh4" depart="4.00" from="A1B1" to="A0A1"/>
    <trip id="veh5" depart="5.00" from="A0B0" to="B0A0"/>
    <trip id="veh6" depart="6.00" from="A0A1" to="A0B0"/>
    <trip id="veh7" depart="7.00" from="B0B1" to="B0A0"/>
    <trip id="veh8" depart="8.00" from="A0B0" to="B0A0"/>
    <trip id="veh9" depart="9.00" from="B1A1" to="A0A1"/>
    <trip id="veh10" depart="10.00" from="B1A1" to="B0B1"/>
    <trip id="veh11" depart="11.00" from="A1A0" to="A0B0"/>
    <trip id="veh12" depart="12.00" from="B1B0" to="A1A0"/>
    <trip id="veh13" depart="13.00" from="A0A1" to="A0A1"/>
    <trip id="veh14" depart="14.00" from="B1A1" to="B0A0"/>
    <trip id="veh15" depart="15.00" from="B1A1" to="B0B1"/>
    <trip id="veh16" depart="16.00" from="B0A0" to="B1B0"/>
    <trip id="veh17" depart="17.00" from="A1B1" to="B0A0"/>
    <trip id="veh18" depart="18.00" from="B1A1" to="B0A0"/>
    <trip id="veh19" depart="19.00" from="B1A1" to="B0A0"/>
    <trip id="veh20" depart="20.00" from="B0B1" to="A0A1"/>
    <trip id="veh21" depart="21.00" from="A0B0" to="A1A0"/>
    <trip id="veh22" depart="22.00" from="A0A1" to="A0B0"/>
    <trip id="veh23" depart="23.00" from="A0A1" to="A1A0"/>
    <trip id="veh24" depart="24.00" from="B0B1" to="A1A0"/>
    <trip id="veh25" depart="25.00" from="A1A0" to="A0B0"/>
    <trip id="veh26" depart="26.00" from="A1A0" to="B1B0"/>
    <trip id="veh27" depart="27.00" from="B0B1" to="B0A0"/>
    <trip id="veh28" depart="28.00" from="A0B0" to="B0B1"/>
    <trip id="veh29" depart="29.00" from="A0B0" to="A1B1"/>
    <trip id="veh30" depart="30.00" from="B1B0" to="B0B1"/>
    <trip id="veh31" depart="31.00" from="B0A0" to="B0B1"/>
    <trip id="veh32" depart="32.00" from="B1A1" to="B1A1"/>
    <trip id="veh33" depart="33.00" from="A0B0" to="A0A1"/>
    <trip id="veh34" depart="34.00" from="A1A0" to="A1A0"/>
    <trip id="veh35" depart="35.00" from="A0B0" to="B1B0"/>
    <trip id="veh36" depart="36.00" from="B1B0" to="A1A0"/>
    <trip id="veh37" depart="37.00" from="B0B1" to="A1B1"/>
    <trip id="veh38" depart="38.00" from="B1B0" to="A1B1"/>
    <trip id="veh39" depart="39.00" from="A1A0" to="A0B0"/>
    <trip id="veh40" depart="40.00" from="B0A0" to="A1A0"/>
    <trip id="veh41" depart="41.00" from="B0A0" to="B1B0"/>
    <trip id="veh42" depart="42.00" from="A1B1" to="A0B0"/>
    <trip id="veh43" depart="43.00" from="B1B0" to="B0A0"/>
    <trip id="veh44" depart="44.00" from="A0A1" to="A0A1"/>
    <trip id="veh45" depart="45.00" from="A0A1" to="B0B1"/>
    <trip id="veh46" depart="46.00" from="B1A1" to="A1B1"/>
    <trip id="veh47" depart="47.00" from="A0A1" to="A1B1"/>
    <trip id="veh48" depart="48.00" from="B1B0" to="B0A0"/>
    <trip id="veh49" depart="49.00" from="B1B0" to="B1A1"/>
    <trip id="veh50" depart="50.00" from="A0A1" to="B0B1"/>
    <trip id="veh51" depart="51.00" from="B0B1" to="B0A0"/>
    <trip id="veh52" depart="52.00" from="A1A0" to="B0B1"/>
    <trip id="veh53" depart="53.00" from="A0A1" to="A1B1"/>
    <trip id="veh54" depart="54.00" from="A1B1" to="B1B0"/>
    <trip id="veh55" depart="55.00" from="B1B0" to="A1A0"/>
    <trip id="veh56" depart="56.00" from="B0A0" to="A0B0"/>
    <trip id="veh57" depart="57.00" from="B1B0" to="B1A1"/>
    <trip id="veh58" depart="58.00" from="A1A0" to="B0B1"/>
    <trip id="veh59" depart="59.00" from="B0A0" to="A0B0"/>
    <trip id="veh60" depart="60.00" from="B1A1" to="B0A0"/>
    <trip id="veh61" depart="61.00" from="B1A1" to="B0A0"/>
    <trip id="veh62" depart="62.00" from="A0A1" to="A1A0"/>
    <trip id="veh63" depart="63.00" from="A0A1" to="B1B0"/>
    <trip id="veh64" depart="64.00" from="B1B0" to="B1A1"/>
    <trip id="veh65" depart="65.00" from="A1A0" to="A0A1"/>
    <trip id="veh66" depart="66.00" from="B1B0" to="B1B0"/>
    <trip id="veh67" depart="67.00" from="A0A1" to="A1B1"/>
    <trip id="veh68" depart="68.00" from="A0A1" to="B1A1"/>
    <trip id="veh69" depart="69.00" from="B1A1" to="A0B0"/>
    <trip id="veh70" depart="70.00" from="A1B1" to="B0A0"/>
    <trip id="veh71" depart="71.00" from="A1A0" to="B1A1"/>
    <trip id="veh72" depart="72.00" from="A1B1" to="A0B0"/>
    <trip id="veh73" depart="73.00" from="B0A0" to="B0B1"/>
    <trip id="veh74" depart="74.00" from="A0B0" to="A1A0"/>
    <trip id="veh75" depart="75.00" from="B1B0" to="B0B1"/>
    <trip id="veh76" depart="76.00" from="A1B1" to="B0A0"/>
    <trip id="veh77" depart="77.00" from="A0A1" to="A0B0"/>
    <trip id="veh78" depart="78.00" from="A1A0" to="B0A0"/>
    <trip id="veh79" depart="79.00" from="A0B0" to="A0B0"/>
    <trip id="veh80" depart="80.00" from="A0A1" to="B0B1"/>
    <trip id="veh81" depart="81.00" from="A0B0" to="B1B0"/>
    <trip id="veh82" depart="82.00" from="B1A1" to="A0A1"/>
    <trip id="veh83" depart="83.00" from="A0B0" to="B0B1"/>
    <trip id="veh84" depart="84.00" from="A0B0" to="A0B0"/>
    <trip id="veh85" depart="85.00" from="B1B0" to="B0A0"/>
    <trip id="veh86" depart="86.00" from="A1B1" to="B1A1"/>
    <trip id="veh87" depart="87.00" from="B1A1" to="A0B0"/>
    <trip id="veh88" depart="88.00" from="A0A1" to="A1B1"/>
    <trip id="veh89" depart="89.00" from="A1B1" to="A1B1"/>
    <trip id="veh90" depart="90.00" from="B0B1" to="B0B1"/>
    <trip id="veh91" depart="91.00" from="B1B0" to="A0A1"/>
    <trip id="veh92" depart="92.00" from="A1B1" to="A1A0"/>
    <trip id="veh93" depart="93.00" from="B1A1" to="A0B0"/>
    <trip id="veh94" depart="94.00" from="A0B0" to="A1B1"/>
    <trip id="veh95" depart="95.00" from="A1B1" to="A1A0"/>
    <trip id="veh96" depart="96.00" from="A0B0" to="B1B0"/>
    <trip id="veh97" depart="97.00" from="A1B1" to="B1A1"/>
    <trip id="veh98" depart="98.00" from="B0A0" to="A0A1"/>
    <trip id="veh99" depart="99.00" from="B1B0" to="B1A1"/>
    <trip id="veh100" depart="100.00" from="B1B0" to="B1B0"/>
    <trip id="veh101" depart="101.00" from="B1A1" to="A0B0"/>
    <trip id="veh102" depart="102.00" from="A1B1" to="A0B0"/>
    <trip id="veh103" depart="103.00" from="A1B1" to="A0A1"/>
    <trip id="veh104" depart="104.00" from="A1B1" to="B1B0"/>
    <trip id="veh105" depart="105.00" from="A1A0" to="B1A1"/>
    <trip id="veh106" depart="106.00" from="A1B1" to="A1B1"/>
    <trip id="veh107" depart="107.00" from="B1B0" to="B1B0"/>
    <trip id="veh108" depart="108.00" from="B0A0" to="B0B1"/>
    <trip id="veh109" depart="109.00" from="A0B0" to="A1A0"/>
    <trip id="veh110" depart="110.00" from="B1B0" to="B0A0"/>
    <trip id="veh111" depart="111.00" from="B0A0" to="B0B1"/>
    <trip id="veh112" depart="112.00" from="A0A1" to="B0A0"/>
    <trip id="veh113" depart="113.00" from="B0A0" to="B1A1"/>
    <trip id="veh114" depart="114.00" from="A0B0" to="B1B0"/>
    <trip id="veh115" depart="115.00" from="A0A1" to="A0B0"/>
    <trip id="veh116" depart="116.00" from="B0A0" to="B0B1"/>
    <trip id="veh117" depart="117.00" from="A0B0" to="A0A1"/>
    <trip id="veh118" depart="118.00" from="B1B0" to="A0B0"/>
    <trip id="veh119" depart="119.00" from="B0A0" to="B0A0"/>
    <trip id="veh120" depart="120.00" from="A1B1" to="B0A0"/>
    <trip id="veh121" depart="121.00" from="B0A0" to="B1B0"/>
    <trip id="veh122" depart="122.00" from="A0B0" to="B0B1"/>
    <trip id="veh123" depart="123.00" from="A0B0" to="A1B1"/>
    <trip id="veh124" depart="124.00" from="B0B1" to="A1A0"/>
    <trip id="veh125" depart="125.00" from="A1A0" to="B1A1"/>
    <trip id="veh126" depart="126.00" from="A0A1" to="A1B1"/>
    <trip id="veh127" depart="127.00" from="B1B0" to="B1B0"/>
    <trip id="veh128" depart="128.00" from="A0A1" to="A0B0"/>
    <trip id="veh129" depart="129.00" from="A1A0" to="B1B0"/>
    <trip id="veh130" depart="130.00" from="B1B0" to="B1B0"/>
    <trip id="veh131" depart="131.00" from="A1A0" to="A0B0"/>
    <trip id="veh132" depart="132.00" from="B1A1" to="B0B1"/>
    <trip id="veh133" depart="133.00" from="B0A0" to="B1B0"/>
    <trip id="veh134" depart="134.00" from="B0B1" to="A0A1"/>
    <trip id="veh135" depart="135.00" from="B1A1" to="A1A0"/>
    <trip id="veh136" depart="136.00" from="B0B1" to="B1B0"/>
    <trip id="veh137" depart="137.00" from="A0B0" to="A0A1"/>
    <trip id="veh138" depart="138.00" from="A0A1" to="B0A0"/>
    <trip id="veh139" depart="139.00" from="A1A0" to="B0A0"/>
    <trip id="veh140" depart="140.00" from="B0B1" to="A0B0"/>
    <trip id="veh141" depart="141.00" from="B0B1" to="A1A0"/>
    <trip id="veh142" depart="142.00" from="A1B1" to="B1B0"/>
    <trip id="veh143" depart="143.00" from="B1A1" to="A0A1"/>
    <trip id="veh144" depart="144.00" from="A1B1" to="A1A0"/>
    <trip id="veh145" depart="145.00" from="A0A1" to="B1A1"/>
    <trip id="veh146" depart="146.00" from="B0B1" to="A1A0"/>
    <trip id="veh147" depart="147.00" from="B0B1" to="B0A0"/>
    <trip id="veh148" depart="148.00" from="A1B1" to="A0A1"/>
    <trip id="veh149" depart="149.00" from="A0A1" to="B1B0"/>
    <trip id="veh150" depart="150.00" from="B1B0" to="B0A0"/>
    <trip id="veh151" depart="151.00" from="B1A1" to="B0A0"/>
    <trip id="veh152" depart="152.00" from="A0B0" to="A0B0"/>
    <trip id="veh153" depart="153.00" from="A1A0" to="B1B0"/>
    <trip id="veh154" depart="154.00" from="B1A1" to="B1A1"/>
    <trip id="veh155" depart="155.00" from="B1B0" to="A0B0"/>
    <trip id="veh156" depart="156.00" from="A0B0" to="A0A1"/>
    <trip id="veh157" depart="157.00" from="B1A1" to="B1B0"/>
    <trip id="veh158" depart="158.00" from="A1B1" to="B0A0"/>
    <trip id="veh159" depart="159.00" from="A0B0" to="B1B0"/>
    <trip id="veh160" depart="160.00" from="B1A1" to="B1B0"/>
    <trip id="veh161" depart="161.00" from="B1A1" to="B1B0"/>
    <trip id="veh162" depart="162.00" from="A0A1" to="B0B1"/>
    <trip id="veh163" depart="163.00" from="A1A0" to="B1B0"/>
    <trip id="veh164" depart="164.00" from="B1A1" to="B1A1"/>
    <trip id="veh165" depart="165.00" from="B1A1" to="A1A0"/>
    <trip id="veh166" depart="166.00" from="B1A1" to="A0A1"/>
    <trip id="veh167" depart="167.00" from="B1A1" to="B1A1"/>
    <trip id="veh168" depart="168.00" from="A0B0" to="B1A1"/>
    <trip id="veh169" depart="169.00" from="A1B1" to="A1A0"/>
    <trip id="veh170" depart="170.00" from="B1A1" to="A0B0"/>
    <trip id="veh171" depart="171.00" from="A0A1" to="A0B0"/>
    <trip id="veh172" depart="172.00" from="A1A0" to="B1A1"/>
    <trip id="veh173" depart="173.00" from="B1B0" to="A1A0"/>
    <trip id="veh174" depart="174.00" from="B0B1" to="A1B1"/>
    <trip id="veh175" depart="175.00" from="B1B0" to="B0A0"/>
    <trip id="veh176" depart="176.00" from="B1B0" to="A0A1"/>
    <trip id="veh177" depart="177.00" from="B1B0" to="A0B0"/>
    <trip id="veh178" depart="178.00" from="B1B0" to="A1A0"/>
    <trip id="veh179" depart="179.00" from="A0A1" to="A1B1"/>
    <trip id="veh180" depart="180.00" from="B0B1" to="A1A0"/>
    <trip id="veh181" depart="181.00" from="B0A0" to="B0A0"/>
    <trip id="veh182" depart="182.00" from="A1B1" to="B0A0"/>
    <trip id="veh183" depart="183.00" from="A1A0" to="B0B1"/>
    <trip id="veh184" depart="184.00" from="A0A1" to="B1B0"/>
    <trip id="veh185" depart="185.00" from="B0A0" to="B0B1"/>
    <trip id="veh186" depart="186.00" from="B0B1" to="B0B1"/>
    <trip id="veh187" depart="187.00" from="A1A0" to="A0A1"/>
    <trip id="veh188" depart="188.00" from="B0B1" to="A1A0"/>
    <trip id="veh189" depart="189.00" from="A1A0" to="B1A1"/>
    <trip id="veh190" depart="190.00" from="B0B1" to="A1A0"/>
    <trip id="veh191" depart="191.00" from="A1A0" to="A1B1"/>
    <trip id="veh192" depart="192.00" from="A1B1" to="A1A0"/>
    <trip id="veh193" depart="193.00" from="A0B0" to="A1B1"/>
    <trip id="veh194" depart="194.00" from="B1B0" to="B0B1"/>
    <trip id="veh195" depart="195.00" from="B1B0" to="B0A0"/>
    <trip id="veh196" depart="196.00" from="A1A0" to="B0A0"/>
    <trip id="veh197" depart="197.00" from="A0A1" to="A1A0"/>
    <trip id="veh198" depart="198.00" from="A1B1" to="B0A0"/>
    <trip id="veh199" depart="199.00" from="B0B1" to="A1B1"/>
    <trip id="veh200" depart="200.00" from="A1B1" to="A0B0"/>
    <trip id="veh201" depart="201.00" from="A1B1" to="B1B0"/>
    <trip id="veh202" depart="202.00" from="B1A1" to="A0B0"/>
    <trip id="veh203" depart="203.00" from="A0A1" to="B0A0"/>
    <trip id="veh204" depart="204.00" from="B0B1" to="A1A0"/>
    <trip id="veh205" depart="205.00" from="B1A1" to="B1A1"/>
    <trip id="veh206" depart="206.00" from="B0B1" to="A0B0"/>
    <trip id="veh207" depart="207.00" from="A0B0" to="A0A1"/>
    <trip id="veh208" depart="208.00" from="A0B0" to="A1B1"/>
    <trip id="veh209" depart="209.00" from="B1A1" to="A0A1"/>
    <trip id="veh210" depart="210.00" from="A1B1" to="B0B1"/>
    <trip id="veh211" depart="211.00" from="A0B0" to="B0B1"/>
    <trip id="veh212" depart="212.00" from="A1B1" to="A0B0"/>
    <trip id="veh213" depart="213.00" from="B0B1" to="A0A1"/>
    <trip id="veh214" depart="214.00" from="B1A1" to="B1A1"/>
    <trip id="veh215" depart="215.00" from="A0A1" to="A1B1"/>
    <trip id="veh216" depart="216.00" from="A0B0" to="B1B0"/>
    <trip id="veh217" depart="217.00" from="B0A0" to="A0A1"/>
    <trip id="veh218" depart="218.00" from="A0B0" to="B1A1"/>
    <trip id="veh219" depart="219.00" from="A1B1" to="B1A1"/>
    <trip id="veh220" depart="220.00" from="B0B1" to="B1B0"/>
    <trip id="veh221" depart="221.00" from="B0A0" to="B1B0"/>
    <trip id="veh222" depart="222.00" from="B1B0" to="B0A0"/>
    <trip id="veh223" depart="223.00" from="B0B1" to="B0A0"/>
    <trip id="veh224" depart="224.00" from="B1A1" to="B0A0"/>
    <trip id="veh225" depart="225.00" from="B1B0" to="B0B1"/>
    <trip id="veh226" depart="226.00" from="A1B1" to="A1A0"/>
    <trip id="veh227" depart="227.00" from="A0B0" to="B0B1"/>
    <trip id="veh228" depart="228.00" from="B1A1" to="B0A0"/>
    <trip id="veh229" depart="229.00" from="B0B1" to="A1A0"/>
    <trip id="veh230" depart="230.00" from="A0A1" to="A1A0"/>
    <trip id="veh231" depart="231.00" from="A1A0" to="A1A0"/>
    <trip id="veh232" depart="232.00" from="B0A0" to="A0B0"/>
    <trip id="veh233" depart="233.00" from="A0B0" to="B0B1"/>
    <trip id="veh234" depart="234.00" from="B0B1" to="A0A1"/>
    <trip id="veh235" depart="235.00" from="A1B1" to="B0A0"/>
    <trip id="veh236" depart="236.00" from="A1B1" to="A0B0"/>
    <trip id="veh237" depart="237.00" from="A1B1" to="B1B0"/>
    <trip id="veh238" depart="238.00" from="B0A0" to="B0B1"/>
    <trip id="veh239" depart="239.00" from="B1A1" to="B1A1"/>
    <trip id="veh240" depart="240.00" from="A1B1" to="A0A1"/>
    <trip id="veh241" depart="241.00" from="A1A0" to="B1A1"/>
    <trip id="veh242" depart="242.00" from="B1A1" to="B1B0"/>
    <trip id="veh243" depart="243.00" from="A1B1" to="B0B1"/>
    <trip id="veh244" depart="244.00" from="B0A0" to="B0A0"/>
    <trip id="veh245" depart="245.00" from="A0B0" to="A0B0"/>
    <trip id="veh246" depart="246.00" from="A1B1" to="A0A1"/>
    <trip id="veh247" depart="247.00" from="A1A0" to="B0B1"/>
    <trip id="veh248" depart="248.00" from="A1B1" to="A0B0"/>
    <trip id="veh249" depart="249.00" from="A1B1" to="A0B0"/>
    <trip id="veh250" depart="250.00" from="B0A0" to="A0A1"/>
    <trip id="veh251" depart="251.00" from="A1B1" to="B0A0"/>
    <trip id="veh252" depart="252.00" from="A0A1" to="B0B1"/>
    <trip id="veh253" depart="253.00" from="A0B0" to="A1B1"/>
    <trip id="veh254" depart="254.00" from="A0A1" to="A1B1"/>
    <trip id="veh255" depart="255.00" from="A0B0" to="A1A0"/>
    <trip id="veh256" depart="256.00" from="B1A1" to="A1B1"/>
    <trip id="veh257" depart="257.00" from="B1A1" to="B1A1"/>
    <trip id="veh258" depart="258.00" from="A1A0" to="A0A1"/>
    <trip id="veh259" depart="259.00" from="A0A1" to="B0A0"/>
    <trip id="veh260" depart="260.00" from="B1B0" to="A1A0"/>
    <trip id="veh261" depart="261.00" from="B0B1" to="B1A1"/>
    <trip id="veh262" depart="262.00" from="B0B1" to="B1A1"/>
    <trip id="veh263" depart="263.00" from="B1B0" to="A0B0"/>
    <trip id="veh264" depart="264.00" from="A0A1" to="A0B0"/>
    <trip id="veh265" depart="265.00" from="A0B0" to="B0B1"/>
    <trip id="veh266" depart="266.00" from="B0A0" to="A0B0"/>
    <trip id="veh267" depart="267.00" from="B0B1" to="B1A1"/>
    <trip id="veh268" depart="268.00" from="A0B0" to="B0A0"/>
    <trip id="veh269" depart="269.00" from="B0B1" to="A0A1"/>
    <trip id="veh270" depart="270.00" from="B1A1" to="B1B0"/>
    <trip id="veh271" depart="271.00" from="A0A1" to="A0A1"/>
    <trip id="veh272" depart="272.00" from="A1A0" to="B0B1"/>
    <trip id="veh273" depart="273.00" from="B1B0" to="A1B1"/>
    <trip id="veh274" depart="274.00" from="B0B1" to="A0A1"/>
    <trip id="veh275" depart="275.00" from="B0B1" to="B0B1"/>
    <trip id="veh276" depart="276.00" from="A0A1" to="B1A1"/>
    <trip id="veh277" depart="277.00" from="B1A1" to="B0A0"/>
    <trip id="veh278" depart="278.00" from="A0A1" to="B1B0"/>
    <trip id="veh279" depart="279.00" from="B1A1" to="A1A0"/>
    <trip id="veh280" depart="280.00" from="A1B1" to="A1A0"/>
    <trip id="veh281" depart="281.00" from="B0A0" to="A1A0"/>
    <trip id="veh282" depart="282.00" from="B1A1" to="B1A1"/>
    <trip id="veh283" depart="283.00" from="A0A1" to="B1B0"/>
    <trip id="veh284" depart="284.00" from="B0B1" to="B1A1"/>
    <trip id="veh285" depart="285.00" from="B0B1" to="A1B1"/>
    <trip id="veh286" depart="286.00" from="B0B1" to="B1B0"/>
    <trip id="veh287" depart="287.00" from="A1A0" to="B1A1"/>
    <trip id="veh288" depart="288.00" from="B0A0" to="A1B1"/>
    <trip id="veh289" depart="289.00" from="A1B1" to="B0B1"/>
    <trip id="veh290" depart="290.00" from="A1A0" to="B1A1"/>
    <trip id="veh291" depart="291.00" from="B1A1" to="A0A1"/>
    <trip id="veh292" depart="292.00" from="B1B0" to="A0B0"/>
    <trip id="veh293" depart="293.00" from="A1B1" to="B0A0"/>
    <trip id="veh294" depart="294.00" from="A1B1" to="A0A1"/>
    <trip id="veh295" depart="295.00" from="B1A1" to="A0B0"/>
    <trip id="veh296" depart="296.00" from="A0B0" to="B1A1"/>
    <trip id="veh297" depart="297.00" from="A1A0" to="B1B0"/>
    <trip id="veh298" depart="298.00" from="B0B1" to="A1A0"/>
    <trip id="veh299" depart="299.00" from="A0A1" to="B1B0"/>
    <trip id="veh300" depart="300.00" from="A0A1" to="B0B1"/>
    <trip id="veh301" depart="301.00" from="A1B1" to="B1A1"/>
    <trip id="veh302" depart="302.00" from="B0B1" to="B0B1"/>
    <trip id="veh303" depart="303.00" from="A1B1" to="B1A1"/>
    <trip id="veh304" depart="304.00" from="A0A1" to="A0B0"/>
    <trip id="veh305" depart="305.00" from="B0B1" to="A1A0"/>
    <trip id="veh306" depart="306.00" from="B0A0" to="A1B1"/>
    <trip id="veh307" depart="307.00" from="B0A0" to="A1B1"/>
    <trip id="veh308" depart="308.00" from="B0B1" to="A1A0"/>
    <trip id="veh309" depart="309.00" from="B0B1" to="A1A0"/>
    <trip id="veh310" depart="310.00" from="A1A0" to="A0A1"/>
    <trip id="veh311" depart="311.00" from="A0B0" to="A0A1"/>
    <trip id="veh312" depart="312.00" from="B0A0" to="B1A1"/>
    <trip id="veh313" depart="313.00" from="A0B0" to="A0B0"/>
    <trip id="veh314" depart="314.00" from="A1B1" to="B0B1"/>
    <trip id="veh315" depart="315.00" from="B1B0" to="B0A0"/>
    <trip id="veh316" depart="316.00" from="A1A0" to="A0A1"/>
    <trip id="veh317" depart="317.00" from="A0B0" to="A0B0"/>
    <trip id="veh318" depart="318.00" from="A0B0" to="A0A1"/>
    <trip id="veh319" depart="319.00" from="B0A0" to="A1A0"/>
    <trip id="veh320" depart="320.00" from="B1B0" to="B0A0"/>
    <trip id="veh321" depart="321.00" from="B0B1" to="A0B0"/>
    <trip id="veh322" depart="322.00" from="B1A1" to="A1B1"/>
    <trip id="veh323" depart="323.00" from="B1A1" to="B0A0"/>
    <trip id="veh324" depart="324.00" from="A1B1" to="A1B1"/>
    <trip id="veh325" depart="325.00" from="A0B0" to="A0A1"/>
    <trip id="veh326" depart="326.00" from="B1B0" to="A1B1"/>
    <trip id="veh327" depart="327.00" from="B1A1" to="A1B1"/>
    <trip id="veh328" depart="328.00" from="A0A1" to="B0B1"/>
    <trip id="veh329" depart="329.00" from="A0A1" to="A0B0"/>
    <trip id="veh330" depart="330.00" from="B0A0" to="A1A0"/>
    <trip id="veh331" depart="331.00" from="B1B0" to="A0A1"/>
    <trip id="veh332" depart="332.00" from="B1A1" to="B0A0"/>
    <trip id="veh333" depart="333.00" from="B1A1" to="A0B0"/>
    <trip id="veh334" depart="334.00" from="B0A0" to="A1B1"/>
    <trip id="veh335" depart="335.00" from="A1B1" to="B1A1"/>
    <trip id="veh336" depart="336.00" from="B1B0" to="A1A0"/>
    <trip id="veh337" depart="337.00" from="B0A0" to="B0A0"/>
    <trip id="veh338" depart="338.00" from="B0B1" to="B1B0"/>
    <trip id="veh339" depart="339.00" from="A0B0" to="A0B0"/>
    <trip id="veh340" depart="340.00" from="B0B1" to="A0B0"/>
    <trip id="veh341" depart="341.00" from="A0B0" to="A0A1"/>
    <trip id="veh342" depart="342.00" from="A0A1" to="A1B1"/>
    <trip id="veh343" depart="343.00" from="B0A0" to="A1A0"/>
    <trip id="veh344" depart="344.00" from="A0B0" to="B0B1"/>
    <trip id="veh345" depart="345.00" from="B0B1" to="A1B1"/>
    <trip id="veh346" depart="346.00" from="B0B1" to="B1B0"/>
    <trip id="veh347" depart="347.00" from="B1A1" to="B0B1"/>
    <trip id="veh348" depart="348.00" from="B0B1" to="B1B0"/>
    <trip id="veh349" depart="349.00" from="A1B1" to="B0A0"/>
    <trip id="veh350" depart="350.00" from="B0B1" to="B1B0"/>
    <trip id="veh351" depart="351.00" from="B1A1" to="A0A1"/>
    <trip id="veh352" depart="352.00" from="A0B0" to="A1A0"/>
    <trip id="veh353" depart="353.00" from="B0B1" to="B0A0"/>
    <trip id="veh354" depart="354.00" from="A1A0" to="A0A1"/>
    <trip id="veh355" depart="355.00" from="B0B1" to="B0B1"/>
    <trip id="veh356" depart="356.00" from="B1B0" to="B0A0"/>
    <trip id="veh357" depart="357.00" from="A1B1" to="A0A1"/>
    <trip id="veh358" depart="358.00" from="A0A1" to="A1B1"/>
    <trip id="veh359" depart="359.00" from="A1A0" to="A1A0"/>
    <trip id="veh360" depart="360.00" from="A0A1" to="B1B0"/>
    <trip id="veh361" depart="361.00" from="B1A1" to="B0A0"/>
    <trip id="veh362" depart="362.00" from="B1B0" to="B1B0"/>
    <trip id="veh363" depart="363.00" from="B0B1" to="A1A0"/>
    <trip id="veh364" depart="364.00" from="A0A1" to="B1A1"/>
    <trip id="veh365" depart="365.00" from="A1B1" to="B0B1"/>
    <trip id="veh366" depart="366.00" from="B1B0" to="A0B0"/>
    <trip id="veh367" depart="367.00" from="B0A0" to="B0B1"/>
    <trip id="veh368" depart="368.00" from="A1B1" to="A0A1"/>
    <trip id="veh369" depart="369.00" from="A1A0" to="A1A0"/>
    <trip id="veh370" depart="370.00" from="B0B1" to="B1A1"/>
    <trip id="veh371" depart="371.00" from="A1A0" to="B0B1"/>
    <trip id="veh372" depart="372.00" from="A1A0" to="B1B0"/>
    <trip id="veh373" depart="373.00" from="B1A1" to="B0A0"/>
    <trip id="veh374" depart="374.00" from="A1B1" to="A1A0"/>
    <trip id="veh375" depart="375.00" from="A1A0" to="B1B0"/>
    <trip id="veh376" depart="376.00" from="A1B1" to="B0A0"/>
    <trip id="veh377" depart="377.00" from="B1B0" to="B0B1"/>
    <trip id="veh378" depart="378.00" from="B0A0" to="A1B1"/>
    <trip id="veh379" depart="379.00" from="A0B0" to="A1A0"/>
    <trip id="veh380" depart="380.00" from="B1A1" to="B0B1"/>
    <trip id="veh381" depart="381.00" from="B1A1" to="A0B0"/>
    <trip id="veh382" depart="382.00" from="B0A0" to="B1B0"/>
    <trip id="veh383" depart="383.00" from="A1B1" to="B0B1"/>
    <trip id="veh384" depart="384.00" from="A0A1" to="B1B0"/>
    <trip id="veh385" depart="385.00" from="B0A0" to="A0B0"/>
    <trip id="veh386" depart="386.00" from="A0B0" to="B0A0"/>
    <trip id="veh387" depart="387.00" from="B0A0" to="A0A1"/>
    <trip id="veh388" depart="388.00" from="B1B0" to="B1B0"/>
    <trip id="veh389" depart="389.00" from="A1B1" to="A0A1"/>
    <trip id="veh390" depart="390.00" from="B1A1" to="A1B1"/>
    <trip id="veh391" depart="391.00" from="B0B1" to="B0A0"/>
    <trip id="veh392" depart="392.00" from="A1A0" to="B1A1"/>
    <trip id="veh393" depart="393.00" from="B1B0" to="A0B0"/>
    <trip id="veh394" depart="394.00" from="B0A0" to="A1B1"/>
    <trip id="veh395" depart="395.00" from="B1B0" to="B0A0"/>
    <trip id="veh396" depart="396.00" from="B1B0" to="B1A1"/>
    <trip id="veh397" depart="397.00" from="A1A0" to="B1A1"/>
    <trip id="veh398" depart="398.00" from="A1B1" to="B1B0"/>
    <trip id="veh399" depart="399.00" from="B0A0" to="B1A1"/>
    <trip id="veh400" depart="400.00" from="A1A0" to="A1A0"/>
    <trip id="veh401" depart="401.00" from="B0A0" to="B1B0"/>
    <trip id="veh402" depart="402.00" from="A1B1" to="A0B0"/>
    <trip id="veh403" depart="403.00" from="B0A0" to="A1A0"/>
    <trip id="veh404" depart="404.00" from="B0A0" to="B0A0"/>
    <trip id="veh405" depart="405.00" from="A1B1" to="A1A0"/>
    <trip id="veh406" depart="406.00" from="A0B0" to="B0B1"/>
    <trip id="veh407" depart="407.00" from="B0A0" to="A0B0"/>
    <trip id="veh408" depart="408.00" from="B1A1" to="A0A1"/>
    <trip id="veh409" depart="409.00" from="B0B1" to="B0B1"/>
    <trip id="veh410" depart="410.00" from="B1A1" to="A1B1"/>
    <trip id="veh411" depart="411.00" from="B0B1" to="B1A1"/>
    <trip id="veh412" depart="412.00" from="B1B0" to="A1B1"/>
    <trip id="veh413" depart="413.00" from="A0A1" to="B0A0"/>
    <trip id="veh414" depart="414.00" from="B0A0" to="B1A1"/>
    <trip id="veh415" depart="415.00" from="B1A1" to="A1B1"/>
    <trip id="veh416" depart="416.00" from="B0A0" to="A1B1"/>
    <trip id="veh417" depart="417.00" from="B0B1" to="A1B1"/>
    <trip id="veh418" depart="418.00" from="B0B1" to="A0B0"/>
    <trip id="veh419" depart="419.00" from="A1B1" to="B1B0"/>
    <trip id="veh420" depart="420.00" from="A1A0" to="B0B1"/>
    <trip id="veh421" depart="421.00" from="B0B1" to="B1A1"/>
    <trip id="veh422" depart="422.00" from="B1A1" to="B1A1"/>
    <trip id="veh423" depart="423.00" from="A1B1" to="A1A0"/>
    <trip id="veh424" depart="424.00" from="B0B1" to="B1A1"/>
    <trip id="veh425" depart="425.00" from="B1A1" to="A0A1"/>
    <trip id="veh426" depart="426.00" from="A0A1" to="B0B1"/>
    <trip id="veh427" depart="427.00" from="B1B0" to="B1B0"/>
    <trip id="veh428" depart="428.00" from="B0B1" to="A1B1"/>
    <trip id="veh429" depart="429.00" from="A0A1" to="B0B1"/>
    <trip id="veh430" depart="430.00" from="B1A1" to="A1B1"/>
    <trip id="veh431" depart="431.00" from="B0B1" to="B1B0"/>
    <trip id="veh432" depart="432.00" from="A0A1" to="B1A1"/>
    <trip id="veh433" depart="433.00" from="A1A0" to="A1A0"/>
    <trip id="veh434" depart="434.00" from="A0B0" to="B0A0"/>
    <trip id="veh435" depart="435.00" from="B0A0" to="B1A1"/>
    <trip id="veh436" depart="436.00" from="A0B0" to="A0A1"/>
    <trip id="veh437" depart="437.00" from="B1A1" to="B0A0"/>
    <trip id="veh438" depart="438.00" from="A0B0" to="B1B0"/>
    <trip id="veh439" depart="439.00" from="A0B0" to="A1B1"/>
    <trip id="veh440" depart="440.00" from="A1A0" to="A1A0"/>
    <trip id="veh441" depart="441.00" from="A0A1" to="B1A1"/>
    <trip id="veh442" depart="442.00" from="B1B0" to="B0B1"/>
    <trip id="veh443" depart="443.00" from="A0B0" to="A1B1"/>
    <trip id="veh444" depart="444.00" from="A1A0" to="B0A0"/>
    <trip id="veh445" depart="445.00" from="B0B1" to="A1B1"/>
    <trip id="veh446" depart="446.00" from="A1A0" to="B1A1"/>
    <trip id="veh447" depart="447.00" from="A0B0" to="A1B1"/>
    <trip id="veh448" depart="448.00" from="A1B1" to="A0B0"/>
    <trip id="veh449" depart="449.00" from="B0A0" to="B0A0"/>
    <trip id="veh450" depart="450.00" from="B1B0" to="A1A0"/>
    <trip id="veh451" depart="451.00" from="B1B0" to="B0B1"/>
    <trip id="veh452" depart="452.00" from="A1A0" to="B0A0"/>
    <trip id="veh453" depart="453.00" from="B0B1" to="B0B1"/>
    <trip id="veh454" depart="454.00" from="A0A1" to="B0A0"/>
    <trip id="veh455" depart="455.00" from="A1B1" to="B1B0"/>
    <trip id="veh456" depart="456.00" from="A1A0" to="B1A1"/>
    <trip id="veh457" depart="457.00" from="B0A0" to="A1A0"/>
    <trip id="veh458" depart="458.00" from="B0B1" to="B0A0"/>
    <trip id="veh459" depart="459.00" from="B0B1" to="B0B1"/>
    <trip id="veh460" depart="460.00" from="B0B1" to="B1A1"/>
    <trip id="veh461" depart="461.00" from="B0B1" to="B1B0"/>
    <trip id="veh462" depart="462.00" from="B0B1" to="A1A0"/>
    <trip id="veh463" depart="463.00" from="A1B1" to="B0A0"/>
    <trip id="veh464" depart="464.00" from="B0B1" to="A0A1"/>
    <trip id="veh465" depart="465.00" from="A1A0" to="B0B1"/>
    <trip id="veh466" depart="466.00" from="A0B0" to="A0B0"/>
    <trip id="veh467" depart="467.00" from="B0A0" to="B1B0"/>
    <trip id="veh468" depart="468.00" from="B0A0" to="B1B0"/>
    <trip id="veh469" depart="469.00" from="B1A1" to="A1A0"/>
    <trip id="veh470" depart="470.00" from="B1A1" to="A1B1"/>
    <trip id="veh471" depart="471.00" from="B1A1" to="B0B1"/>
    <trip id="veh472" depart="472.00" from="A1A0" to="A0A1"/>
    <trip id="veh473" depart="473.00" from="B1B0" to="A0B0"/>
    <trip id="veh474" depart="474.00" from="B1B0" to="B1A1"/>
    <trip id="veh475" depart="475.00" from="B0B1" to="B1B0"/>
    <trip id="veh476" depart="476.00" from="B1B0" to="B1A1"/>
    <trip id="veh477" depart="477.00" from="A1A0" to="B1A1"/>