<?xml version="1.0" encoding="UTF-8"?>

<!-- generated on 2025-05-21 17:03:59.364198 by randomTrips.py UNKNOWN
<configuration>
    <net-file value="/home/aldo/Documents/UNAM/Posgrado/2025-II/RL/Proyecto/sumo_env/intersection.net.xml"/>
    <route-file value="/home/aldo/Documents/UNAM/Posgrado/2025-II/RL/Proyecto/sumo_env/routes.rou.xml"/>
    <prefix value="veh"/>
    <end value="1000.0"/>
    <period value="1.0"/>
</configuration>
-->

<!-- generated on 2025-05-21 17:03:59 by Eclipse SUMO duarouter Version v1_23_1+0218-161ccc9341a
<duarouterConfiguration xmlns:xsi="http://www.w3.org/2001/XMLSchema-instance" xsi:noNamespaceSchemaLocation="http://sumo.dlr.de/xsd/duarouterConfiguration.xsd">

    <input>
        <net-file value="/home/aldo/Documents/UNAM/Posgrado/2025-II/RL/Proyecto/sumo_env/intersection.net.xml"/>
        <route-files value="trips.trips.xml"/>
    </input>

    <output>
        <output-file value="/home/aldo/Documents/UNAM/Posgrado/2025-II/RL/Proyecto/sumo_env/routes.rou.xml"/>
        <alternatives-output value="NUL"/>
    </output>

    <time>
        <begin value="0"/>
        <end value="1000.0"/>
    </time>

    <report>
        <no-warnings value="true"/>
        <ignore-errors value="true"/>
        <no-step-log value="true"/>
    </report>

</duarouterConfiguration>
-->

<routes xmlns:xsi="http://www.w3.org/2001/XMLSchema-instance" xsi:noNamespaceSchemaLocation="http://sumo.dlr.de/xsd/routes_file.xsd">
    <vehicle id="veh1" depart="1.00">
        <route edges="A1A0 A0B0"/>
    </vehicle>
    <vehicle id="veh2" depart="2.00">
        <route edges="B0B1"/>
    </vehicle>
    <vehicle id="veh3" depart="3.00">
        <route edges="B1B0 B0A0 A0A1"/>
    </vehicle>
    <vehicle id="veh4" depart="4.00">
        <route edges="A1B1 B1B0 B0A0 A0A1"/>
    </vehicle>
    <vehicle id="veh10" depart="10.00">
        <route edges="B1A1 A1A0 A0B0 B0B1"/>
    </vehicle>
    <vehicle id="veh11" depart="11.00">
        <route edges="A1A0 A0B0"/>
    </vehicle>
    <vehicle id="veh13" depart="13.00">
        <route edges="A0A1"/>
    </vehicle>
    <vehicle id="veh15" depart="15.00">
        <route edges="B1A1 A1A0 A0B0 B0B1"/>
    </vehicle>
    <vehicle id="veh16" depart="16.00">
        <route edges="B0A0 A0A1 A1B1 B1B0"/>
    </vehicle>
    <vehicle id="veh17" depart="17.00">
        <route edges="A1B1 B1B0 B0A0"/>
    </vehicle>
    <vehicle id="veh21" depart="21.00">
        <route edges="A0B0 B0B1 B1A1 A1A0"/>
    </vehicle>
    <vehicle id="veh24" depart="24.00">
        <route edges="B0B1 B1A1 A1A0"/>
    </vehicle>
    <vehicle id="veh25" depart="25.00">
        <route edges="A1A0 A0B0"/>
    </vehicle>
    <vehicle id="veh28" depart="28.00">
        <route edges="A0B0 B0B1"/>
    </vehicle>
    <vehicle id="veh32" depart="32.00">
        <route edges="B1A1"/>
    </vehicle>
    <vehicle id="veh34" depart="34.00">
        <route edges="A1A0"/>
    </vehicle>
    <vehicle id="veh38" depart="38.00">
        <route edges="B1B0 B0A0 A0A1 A1B1"/>
    </vehicle>
    <vehicle id="veh39" depart="39.00">
        <route edges="A1A0 A0B0"/>
    </vehicle>
    <vehicle id="veh41" depart="41.00">
        <route edges="B0A0 A0A1 A1B1 B1B0"/>
    </vehicle>
    <vehicle id="veh43" depart="43.00">
        <route edges="B1B0 B0A0"/>
    </vehicle>
    <vehicle id="veh44" depart="44.00">
        <route edges="A0A1"/>
    </vehicle>
    <vehicle id="veh47" depart="47.00">
        <route edges="A0A1 A1B1"/>
    </vehicle>
    <vehicle id="veh48" depart="48.00">
        <route edges="B1B0 B0A0"/>
    </vehicle>
    <vehicle id="veh52" depart="52.00">
        <route edges="A1A0 A0B0 B0B1"/>
    </vehicle>
    <vehicle id="veh53" depart="53.00">
        <route edges="A0A1 A1B1"/>
    </vehicle>
    <vehicle id="veh54" depart="54.00">
        <route edges="A1B1 B1B0"/>
    </vehicle>
    <vehicle id="veh58" depart="58.00">
        <route edges="A1A0 A0B0 B0B1"/>
    </vehicle>
    <vehicle id="veh63" depart="63.00">
        <route edges="A0A1 A1B1 B1B0"/>
    </vehicle>
    <vehicle id="veh66" depart="66.00">
        <route edges="B1B0"/>
    </vehicle>
    <vehicle id="veh67" depart="67.00">
        <route edges="A0A1 A1B1"/>
    </vehicle>
    <vehicle id="veh69" depart="69.00">
        <route edges="B1A1 A1A0 A0B0"/>
    </vehicle>
    <vehicle id="veh70" depart="70.00">
        <route edges="A1B1 B1B0 B0A0"/>
    </vehicle>
    <vehicle id="veh71" depart="71.00">
        <route edges="A1A0 A0B0 B0B1 B1A1"/>
    </vehicle>
    <vehicle id="veh74" depart="74.00">
        <route edges="A0B0 B0B1 B1A1 A1A0"/>
    </vehicle>
    <vehicle id="veh76" depart="76.00">
        <route edges="A1B1 B1B0 B0A0"/>
    </vehicle>
    <vehicle id="veh79" depart="79.00">
        <route edges="A0B0"/>
    </vehicle>
    <vehicle id="veh83" depart="83.00">
        <route edges="A0B0 B0B1"/>
    </vehicle>
    <vehicle id="veh84" depart="84.00">
        <route edges="A0B0"/>
    </vehicle>
    <vehicle id="veh85" depart="85.00">
        <route edges="B1B0 B0A0"/>
    </vehicle>
    <vehicle id="veh87" depart="87.00">
        <route edges="B1A1 A1A0 A0B0"/>
    </vehicle>
    <vehicle id="veh88" depart="88.00">
        <route edges="A0A1 A1B1"/>
    </vehicle>
    <vehicle id="veh89" depart="89.00">
        <route edges="A1B1"/>
    </vehicle>
    <vehicle id="veh90" depart="90.00">
        <route edges="B0B1"/>
    </vehicle>
    <vehicle id="veh91" depart="91.00">
        <route edges="B1B0 B0A0 A0A1"/>
    </vehicle>
    <vehicle id="veh93" depart="93.00">
        <route edges="B1A1 A1A0 A0B0"/>
    </vehicle>
    <vehicle id="veh98" depart="98.00">
        <route edges="B0A0 A0A1"/>
    </vehicle>
    <vehicle id="veh100" depart="100.00">
        <route edges="B1B0"/>
    </vehicle>
    <vehicle id="veh101" depart="101.00">
        <route edges="B1A1 A1A0 A0B0"/>
    </vehicle>
    <vehicle id="veh103" depart="103.00">
        <route edges="A1B1 B1B0 B0A0 A0A1"/>
    </vehicle>
    <vehicle id="veh104" depart="104.00">
        <route edges="A1B1 B1B0"/>
    </vehicle>
    <vehicle id="veh105" depart="105.00">
        <route edges="A1A0 A0B0 B0B1 B1A1"/>
    </vehicle>
    <vehicle id="veh106" depart="106.00">
        <route edges="A1B1"/>
    </vehicle>
    <vehicle id="veh107" depart="107.00">
        <route edges="B1B0"/>
    </vehicle>
    <vehicle id="veh109" depart="109.00">
        <route edges="A0B0 B0B1 B1A1 A1A0"/>
    </vehicle>
    <vehicle id="veh110" depart="110.00">
        <route edges="B1B0 B0A0"/>
    </vehicle>
    <vehicle id="veh112" depart="112.00">
        <route edges="A0A1 A1B1 B1B0 B0A0"/>
    </vehicle>
    <vehicle id="veh119" depart="119.00">
        <route edges="B0A0"/>
    </vehicle>
    <vehicle id="veh120" depart="120.00">
        <route edges="A1B1 B1B0 B0A0"/>
    </vehicle>
    <vehicle id="veh121" depart="121.00">
        <route edges="B0A0 A0A1 A1B1 B1B0"/>
    </vehicle>
    <vehicle id="veh122" depart="122.00">
        <route edges="A0B0 B0B1"/>
    </vehicle>
    <vehicle id="veh124" depart="124.00">
        <route edges="B0B1 B1A1 A1A0"/>
    </vehicle>
    <vehicle id="veh125" depart="125.00">
        <route edges="A1A0 A0B0 B0B1 B1A1"/>
    </vehicle>
    <vehicle id="veh126" depart="126.00">
        <route edges="A0A1 A1B1"/>
    </vehicle>
    <vehicle id="veh127" depart="127.00">
        <route edges="B1B0"/>
    </vehicle>
    <vehicle id="veh130" depart="130.00">
        <route edges="B1B0"/>
    </vehicle>
    <vehicle id="veh131" depart="131.00">
        <route edges="A1A0 A0B0"/>
    </vehicle>
    <vehicle id="veh132" depart="132.00">
        <route edges="B1A1 A1A0 A0B0 B0B1"/>
    </vehicle>
    <vehicle id="veh133" depart="133.00">
        <route edges="B0A0 A0A1 A1B1 B1B0"/>
    </vehicle>
    <vehicle id="veh135" depart="135.00">
        <route edges="B1A1 A1A0"/>
    </vehicle>
    <vehicle id="veh138" depart="138.00">
        <route edges="A0A1 A1B1 B1B0 B0A0"/>
    </vehicle>
    <vehicle id="veh140" depart="140.00">
        <route edges="B0B1 B1A1 A1A0 A0B0"/>
    </vehicle>
    <vehicle id="veh141" depart="141.00">
        <route edges="B0B1 B1A1 A1A0"/>
    </vehicle>
    <vehicle id="veh142" depart="142.00">
        <route edges="A1B1 B1B0"/>
    </vehicle>
    <vehicle id="veh146" depart="146.00">
        <route edges="B0B1 B1A1 A1A0"/>
    </vehicle>
    <vehicle id="veh148" depart="148.00">
        <route edges="A1B1 B1B0 B0A0 A0A1"/>
    </vehicle>
    <vehicle id="veh149" depart="149.00">
        <route edges="A0A1 A1B1 B1B0"/>
    </vehicle>
    <vehicle id="veh150" depart="150.00">
        <route edges="B1B0 B0A0"/>
    </vehicle>
    <vehicle id="veh152" depart="152.00">
        <route edges="A0B0"/>
    </vehicle>
    <vehicle id="veh154" depart="154.00">
        <route edges="B1A1"/>
    </vehicle>
    <vehicle id="veh158" depart="158.00">
        <route edges="A1B1 B1B0 B0A0"/>
    </vehicle>
    <vehicle id="veh164" depart="164.00">
        <route edges="B1A1"/>
    </vehicle>
    <vehicle id="veh165" depart="165.00">
        <route edges="B1A1 A1A0"/>
    </vehicle>
    <vehicle id="veh167" depart="167.00">
        <route edges="B1A1"/>
    </vehicle>
    <vehicle id="veh168" depart="168.00">
        <route edges="A0B0 B0B1 B1A1"/>
    </vehicle>
    <vehicle id="veh170" depart="170.00">
        <route edges="B1A1 A1A0 A0B0"/>
    </vehicle>
    <vehicle id="veh172" depart="172.00">
        <route edges="A1A0 A0B0 B0B1 B1A1"/>
    </vehicle>
    <vehicle id="veh175" depart="175.00">
        <route edges="B1B0 B0A0"/>
    </vehicle>
    <vehicle id="veh176" depart="176.00">
        <route edges="B1B0 B0A0 A0A1"/>
    </vehicle>
    <vehicle id="veh179" depart="179.00">
        <route edges="A0A1 A1B1"/>
    </vehicle>
    <vehicle id="veh180" depart="180.00">
        <route edges="B0B1 B1A1 A1A0"/>
    </vehicle>
    <vehicle id="veh181" depart="181.00">
        <route edges="B0A0"/>
    </vehicle>
    <vehicle id="veh182" depart="182.00">
        <route edges="A1B1 B1B0 B0A0"/>
    </vehicle>
    <vehicle id="veh183" depart="183.00">
        <route edges="A1A0 A0B0 B0B1"/>
    </vehicle>
    <vehicle id="veh184" depart="184.00">
        <route edges="A0A1 A1B1 B1B0"/>
    </vehicle>
    <vehicle id="veh186" depart="186.00">
        <route edges="B0B1"/>
    </vehicle>
    <vehicle id="veh188" depart="188.00">
        <route edges="B0B1 B1A1 A1A0"/>
    </vehicle>
    <vehicle id="veh189" depart="189.00">
        <route edges="A1A0 A0B0 B0B1 B1A1"/>
    </vehicle>
    <vehicle id="veh190" depart="190.00">
        <route edges="B0B1 B1A1 A1A0"/>
    </vehicle>
    <vehicle id="veh195" depart="195.00">
        <route edges="B1B0 B0A0"/>
    </vehicle>
    <vehicle id="veh198" depart="198.00">
        <route edges="A1B1 B1B0 B0A0"/>
    </vehicle>
    <vehicle id="veh201" depart="201.00">
        <route edges="A1B1 B1B0"/>
    </vehicle>
    <vehicle id="veh202" depart="202.00">
        <route edges="B1A1 A1A0 A0B0"/>
    </vehicle>
    <vehicle id="veh203" depart="203.00">
        <route edges="A0A1 A1B1 B1B0 B0A0"/>
    </vehicle>
    <vehicle id="veh204" depart="204.00">
        <route edges="B0B1 B1A1 A1A0"/>
    </vehicle>
    <vehicle id="veh205" depart="205.00">
        <route edges="B1A1"/>
    </vehicle>
    <vehicle id="veh206" depart="206.00">
        <route edges="B0B1 B1A1 A1A0 A0B0"/>
    </vehicle>
    <vehicle id="veh211" depart="211.00">
        <route edges="A0B0 B0B1"/>
    </vehicle>
    <vehicle id="veh214" depart="214.00">
        <route edges="B1A1"/>
    </vehicle>
    <vehicle id="veh215" depart="215.00">
        <route edges="A0A1 A1B1"/>
    </vehicle>
    <vehicle id="veh217" depart="217.00">
        <route edges="B0A0 A0A1"/>
    </vehicle>
    <vehicle id="veh218" depart="218.00">
        <route edges="A0B0 B0B1 B1A1"/>
    </vehicle>
    <vehicle id="veh221" depart="221.00">
        <route edges="B0A0 A0A1 A1B1 B1B0"/>
    </vehicle>
    <vehicle id="veh222" depart="222.00">
        <route edges="B1B0 B0A0"/>
    </vehicle>
    <vehicle id="veh227" depart="227.00">
        <route edges="A0B0 B0B1"/>
    </vehicle>
    <vehicle id="veh229" depart="229.00">
        <route edges="B0B1 B1A1 A1A0"/>
    </vehicle>
    <vehicle id="veh231" depart="231.00">
        <route edges="A1A0"/>
    </vehicle>
    <vehicle id="veh233" depart="233.00">
        <route edges="A0B0 B0B1"/>
    </vehicle>
    <vehicle id="veh235" depart="235.00">
        <route edges="A1B1 B1B0 B0A0"/>
    </vehicle>
    <vehicle id="veh237" depart="237.00">
        <route edges="A1B1 B1B0"/>
    </vehicle>
    <vehicle id="veh239" depart="239.00">
        <route edges="B1A1"/>
    </vehicle>
    <vehicle id="veh240" depart="240.00">
        <route edges="A1B1 B1B0 B0A0 A0A1"/>
    </vehicle>
    <vehicle id="veh241" depart="241.00">
        <route edges="A1A0 A0B0 B0B1 B1A1"/>
    </vehicle>
    <vehicle id="veh244" depart="244.00">
        <route edges="B0A0"/>
    </vehicle>
    <vehicle id="veh245" depart="245.00">
        <route edges="A0B0"/>
    </vehicle>
    <vehicle id="veh246" depart="246.00">
        <route edges="A1B1 B1B0 B0A0 A0A1"/>
    </vehicle>
    <vehicle id="veh247" depart="247.00">
        <route edges="A1A0 A0B0 B0B1"/>
    </vehicle>
    <vehicle id="veh250" depart="250.00">
        <route edges="B0A0 A0A1"/>
    </vehicle>
    <vehicle id="veh251" depart="251.00">
        <route edges="A1B1 B1B0 B0A0"/>
    </vehicle>
    <vehicle id="veh254" depart="254.00">
        <route edges="A0A1 A1B1"/>
    </vehicle>
    <vehicle id="veh255" depart="255.00">
        <route edges="A0B0 B0B1 B1A1 A1A0"/>
    </vehicle>
    <vehicle id="veh257" depart="257.00">
        <route edges="B1A1"/>
    </vehicle>
    <vehicle id="veh259" depart="259.00">
        <route edges="A0A1 A1B1 B1B0 B0A0"/>
    </vehicle>
    <vehicle id="veh261" depart="261.00">
        <route edges="B0B1 B1A1"/>
    </vehicle>
    <vehicle id="veh262" depart="262.00">
        <route edges="B0B1 B1A1"/>
    </vehicle>
    <vehicle id="veh265" depart="265.00">
        <route edges="A0B0 B0B1"/>
    </vehicle>
    <vehicle id="veh267" depart="267.00">
        <route edges="B0B1 B1A1"/>
    </vehicle>
    <vehicle id="veh271" depart="271.00">
        <route edges="A0A1"/>
    </vehicle>
    <vehicle id="veh272" depart="272.00">
        <route edges="A1A0 A0B0 B0B1"/>
    </vehicle>
    <vehicle id="veh273" depart="273.00">
        <route edges="B1B0 B0A0 A0A1 A1B1"/>
    </vehicle>
    <vehicle id="veh275" depart="275.00">
        <route edges="B0B1"/>
    </vehicle>
    <vehicle id="veh278" depart="278.00">
        <route edges="A0A1 A1B1 B1B0"/>
    </vehicle>
    <vehicle id="veh279" depart="279.00">
        <route edges="B1A1 A1A0"/>
    </vehicle>
    <vehicle id="veh282" depart="282.00">
        <route edges="B1A1"/>
    </vehicle>
    <vehicle id="veh283" depart="283.00">
        <route edges="A0A1 A1B1 B1B0"/>
    </vehicle>
    <vehicle id="veh284" depart="284.00">
        <route edges="B0B1 B1A1"/>
    </vehicle>
    <vehicle id="veh287" depart="287.00">
        <route edges="A1A0 A0B0 B0B1 B1A1"/>
    </vehicle>
    <vehicle id="veh288" depart="288.00">
        <route edges="B0A0 A0A1 A1B1"/>
    </vehicle>
    <vehicle id="veh290" depart="290.00">
        <route edges="A1A0 A0B0 B0B1 B1A1"/>
    </vehicle>
    <vehicle id="veh293" depart="293.00">
        <route edges="A1B1 B1B0 B0A0"/>
    </vehicle>
    <vehicle id="veh294" depart="294.00">
        <route edges="A1B1 B1B0 B0A0 A0A1"/>
    </vehicle>
    <vehicle id="veh295" depart="295.00">
        <route edges="B1A1 A1A0 A0B0"/>
    </vehicle>
    <vehicle id="veh296" depart="296.00">
        <route edges="A0B0 B0B1 B1A1"/>
    </vehicle>
    <vehicle id="veh298" depart="298.00">
        <route edges="B0B1 B1A1 A1A0"/>
    </vehicle>
    <vehicle id="veh299" depart="299.00">
        <route edges="A0A1 A1B1 B1B0"/>
    </vehicle>
    <vehicle id="veh302" depart="302.00">
        <route edges="B0B1"/>
    </vehicle>
    <vehicle id="veh305" depart="305.00">
        <route edges="B0B1 B1A1 A1A0"/>
    </vehicle>
    <vehicle id="veh306" depart="306.00">
        <route edges="B0A0 A0A1 A1B1"/>
    </vehicle>
    <vehicle id="veh307" depart="307.00">
        <route edges="B0A0 A0A1 A1B1"/>
    </vehicle>
    <vehicle id="veh308" depart="308.00">
        <route edges="B0B1 B1A1 A1A0"/>
    </vehicle>
    <vehicle id="veh309" depart="309.00">
        <route edges="B0B1 B1A1 A1A0"/>
    </vehicle>
    <vehicle id="veh313" depart="313.00">
        <route edges="A0B0"/>
    </vehicle>
    <vehicle id="veh315" depart="315.00">
        <route edges="B1B0 B0A0"/>
    </vehicle>
    <vehicle id="veh317" depart="317.00">
        <route edges="A0B0"/>
    </vehicle>
    <vehicle id="veh320" depart="320.00">
        <route edges="B1B0 B0A0"/>
    </vehicle>
    <vehicle id="veh321" depart="321.00">
        <route edges="B0B1 B1A1 A1A0 A0B0"/>
    </vehicle>
    <vehicle id="veh324" depart="324.00">
        <route edges="A1B1"/>
    </vehicle>
    <vehicle id="veh326" depart="326.00">
        <route edges="B1B0 B0A0 A0A1 A1B1"/>
    </vehicle>
    <vehicle id="veh331" depart="331.00">
        <route edges="B1B0 B0A0 A0A1"/>
    </vehicle>
    <vehicle id="veh333" depart="333.00">
        <route edges="B1A1 A1A0 A0B0"/>
    </vehicle>
    <vehicle id="veh334" depart="334.00">
        <route edges="B0A0 A0A1 A1B1"/>
    </vehicle>
    <vehicle id="veh337" depart="337.00">
        <route edges="B0A0"/>
    </vehicle>
    <vehicle id="veh339" depart="339.00">
        <route edges="A0B0"/>
    </vehicle>
    <vehicle id="veh340" depart="340.00">
        <route edges="B0B1 B1A1 A1A0 A0B0"/>
    </vehicle>
    <vehicle id="veh342" depart="342.00">
        <route edges="A0A1 A1B1"/>
    </vehicle>
    <vehicle id="veh344" depart="344.00">
        <route edges="A0B0 B0B1"/>
    </vehicle>
    <vehicle id="veh347" depart="347.00">
        <route edges="B1A1 A1A0 A0B0 B0B1"/>
    </vehicle>
    <vehicle id="veh349" depart="349.00">
        <route edges="A1B1 B1B0 B0A0"/>
    </vehicle>
    <vehicle id="veh352" depart="352.00">
        <route edges="A0B0 B0B1 B1A1 A1A0"/>
    </vehicle>
    <vehicle id="veh355" depart="355.00">
        <route edges="B0B1"/>
    </vehicle>
    <vehicle id="veh356" depart="356.00">
        <route edges="B1B0 B0A0"/>
    </vehicle>
    <vehicle id="veh357" depart="357.00">
        <route edges="A1B1 B1B0 B0A0 A0A1"/>
    </vehicle>
    <vehicle id="veh358" depart="358.00">
        <route edges="A0A1 A1B1"/>
    </vehicle>
    <vehicle id="veh359" depart="359.00">
        <route edges="A1A0"/>
    </vehicle>
    <vehicle id="veh360" depart="360.00">
        <route edges="A0A1 A1B1 B1B0"/>
    </vehicle>
    <vehicle id="veh362" depart="362.00">
        <route edges="B1B0"/>
    </vehicle>
    <vehicle id="veh363" depart="363.00">
        <route edges="B0B1 B1A1 A1A0"/>
    </vehicle>
    <vehicle id="veh368" depart="368.00">
        <route edges="A1B1 B1B0 B0A0 A0A1"/>
    </vehicle>
    <vehicle id="veh369" depart="369.00">
        <route edges="A1A0"/>
    </vehicle>
    <vehicle id="veh370" depart="370.00">
        <route edges="B0B1 B1A1"/>
    </vehicle>
    <vehicle id="veh371" depart="371.00">
        <route edges="A1A0 A0B0 B0B1"/>
    </vehicle>
    <vehicle id="veh376" depart="376.00">
        <route edges="A1B1 B1B0 B0A0"/>
    </vehicle>
    <vehicle id="veh378" depart="378.00">
        <route edges="B0A0 A0A1 A1B1"/>
    </vehicle>
    <vehicle id="veh379" depart="379.00">
        <route edges="A0B0 B0B1 B1A1 A1A0"/>
    </vehicle>
    <vehicle id="veh380" depart="380.00">
        <route edges="B1A1 A1A0 A0B0 B0B1"/>
    </vehicle>
    <vehicle id="veh381" depart="381.00">
        <route edges="B1A1 A1A0 A0B0"/>
    </vehicle>
    <vehicle id="veh382" depart="382.00">
        <route edges="B0A0 A0A1 A1B1 B1B0"/>
    </vehicle>
    <vehicle id="veh384" depart="384.00">
        <route edges="A0A1 A1B1 B1B0"/>
    </vehicle>
    <vehicle id="veh387" depart="387.00">
        <route edges="B0A0 A0A1"/>
    </vehicle>
    <vehicle id="veh388" depart="388.00">
        <route edges="B1B0"/>
    </vehicle>
    <vehicle id="veh389" depart="389.00">
        <route edges="A1B1 B1B0 B0A0 A0A1"/>
    </vehicle>
    <vehicle id="veh392" depart="392.00">
        <route edges="A1A0 A0B0 B0B1 B1A1"/>
    </vehicle>
    <vehicle id="veh394" depart="394.00">
        <route edges="B0A0 A0A1 A1B1"/>
    </vehicle>
    <vehicle id="veh395" depart="395.00">
        <route edges="B1B0 B0A0"/>
    </vehicle>
    <vehicle id="veh397" depart="397.00">
        <route edges="A1A0 A0B0 B0B1 B1A1"/>
    </vehicle>
    <vehicle id="veh398" depart="398.00">
        <route edges="A1B1 B1B0"/>
    </vehicle>
    <vehicle id="veh400" depart="400.00">
        <route edges="A1A0"/>
    </vehicle>
    <vehicle id="veh401" depart="401.00">
        <route edges="B0A0 A0A1 A1B1 B1B0"/>
    </vehicle>
    <vehicle id="veh404" depart="404.00">
        <route edges="B0A0"/>
    </vehicle>
    <vehicle id="veh406" depart="406.00">
        <route edges="A0B0 B0B1"/>
    </vehicle>
    <vehicle id="veh409" depart="409.00">
        <route edges="B0B1"/>
    </vehicle>
    <vehicle id="veh411" depart="411.00">
        <route edges="B0B1 B1A1"/>
    </vehicle>
    <vehicle id="veh412" depart="412.00">
        <route edges="B1B0 B0A0 A0A1 A1B1"/>
    </vehicle>
    <vehicle id="veh413" depart="413.00">
        <route edges="A0A1 A1B1 B1B0 B0A0"/>
    </vehicle>
    <vehicle id="veh416" depart="416.00">
        <route edges="B0A0 A0A1 A1B1"/>
    </vehicle>
    <vehicle id="veh418" depart="418.00">
        <route edges="B0B1 B1A1 A1A0 A0B0"/>
    </vehicle>
    <vehicle id="veh419" depart="419.00">
        <route edges="A1B1 B1B0"/>
    </vehicle>
    <vehicle id="veh420" depart="420.00">
        <route edges="A1A0 A0B0 B0B1"/>
    </vehicle>
    <vehicle id="veh421" depart="421.00">
        <route edges="B0B1 B1A1"/>
    </vehicle>
    <vehicle id="veh422" depart="422.00">
        <route edges="B1A1"/>
    </vehicle>
    <vehicle id="veh424" depart="424.00">
        <route edges="B0B1 B1A1"/>
    </vehicle>
    <vehicle id="veh427" depart="427.00">
        <route edges="B1B0"/>
    </vehicle>
    <vehicle id="veh433" depart="433.00">
        <route edges="A1A0"/>
    </vehicle>
    <vehicle id="veh440" depart="440.00">
        <route edges="A1A0"/>
    </vehicle>
    <vehicle id="veh446" depart="446.00">
        <route edges="A1A0 A0B0 B0B1 B1A1"/>
    </vehicle>
    <vehicle id="veh449" depart="449.00">
        <route edges="B0A0"/>
    </vehicle>
    <vehicle id="veh453" depart="453.00">
        <route edges="B0B1"/>
    </vehicle>
    <vehicle id="veh454" depart="454.00">
        <route edges="A0A1 A1B1 B1B0 B0A0"/>
    </vehicle>
    <vehicle id="veh455" depart="455.00">
        <route edges="A1B1 B1B0"/>
    </vehicle>
    <vehicle id="veh456" depart="456.00">
        <route edges="A1A0 A0B0 B0B1 B1A1"/>
    </vehicle>
    <vehicle id="veh459" depart="459.00">
        <route edges="B0B1"/>
    </vehicle>
    <vehicle id="veh460" depart="460.00">
        <route edges="B0B1 B1A1"/>
    </vehicle>
    <vehicle id="veh462" depart="462.00">
        <route edges="B0B1 B1A1 A1A0"/>
    </vehicle>
    <vehicle id="veh463" depart="463.00">
        <route edges="A1B1 B1B0 B0A0"/>
    </vehicle>
    <vehicle id="veh465" depart="465.00">
        <route edges="A1A0 A0B0 B0B1"/>
    </vehicle>
    <vehicle id="veh466" depart="466.00">
        <route edges="A0B0"/>
    </vehicle>
    <vehicle id="veh467" depart="467.00">
        <route edges="B0A0 A0A1 A1B1 B1B0"/>
    </vehicle>
    <vehicle id="veh468" depart="468.00">
        <route edges="B0A0 A0A1 A1B1 B1B0"/>
    </vehicle>
    <vehicle id="veh469" depart="469.00">
        <route edges="B1A1 A1A0"/>
    </vehicle>
    <vehicle id="veh471" depart="471.00">
        <route edges="B1A1 A1A0 A0B0 B0B1"/>
    </vehicle>
    <vehicle id="veh477" depart="477.00">
        <route edges="A1A0 A0B0 B0B1 B1A1"/>
    </vehicle>
    <vehicle id="veh478" depart="478.00">
        <route edges="A0A1 A1B1 B1B0 B0A0"/>
    </vehicle>
    <vehicle id="veh483" depart="483.00">
        <route edges="A0A1 A1B1 B1B0"/>
    </vehicle>
    <vehicle id="veh484" depart="484.00">
        <route edges="B0A0 A0A1 A1B1 B1B0"/>
    </vehicle>
    <vehicle id="veh490" depart="490.00">
        <route edges="A0A1 A1B1 B1B0"/>
    </vehicle>
    <vehicle id="veh492" depart="492.00">
        <route edges="B0B1"/>
    </vehicle>
    <vehicle id="veh493" depart="493.00">
        <route edges="B1B0 B0A0 A0A1 A1B1"/>
    </vehicle>
    <vehicle id="veh494" depart="494.00">
        <route edges="B0B1 B1A1 A1A0 A0B0"/>
    </vehicle>
    <vehicle id="veh495" depart="495.00">
        <route edges="A1B1 B1B0 B0A0 A0A1"/>
    </vehicle>
    <vehicle id="veh496" depart="496.00">
        <route edges="A1B1"/>
    </vehicle>
    <vehicle id="veh497" depart="497.00">
        <route edges="B1B0 B0A0 A0A1"/>
    </vehicle>
    <vehicle id="veh501" depart="501.00">
        <route edges="B0A0 A0A1 A1B1 B1B0"/>
    </vehicle>
    <vehicle id="veh505" depart="505.00">
        <route edges="B0B1"/>
    </vehicle>
    <vehicle id="veh506" depart="506.00">
        <route edges="B0A0 A0A1"/>
    </vehicle>
    <vehicle id="veh507" depart="507.00">
        <route edges="B1A1 A1A0 A0B0"/>
    </vehicle>
    <vehicle id="veh510" depart="510.00">
        <route edges="A0B0"/>
    </vehicle>
    <vehicle id="veh511" depart="511.00">
        <route edges="B1A1 A1A0"/>
    </vehicle>
    <vehicle id="veh514" depart="514.00">
        <route edges="A0B0"/>
    </vehicle>
    <vehicle id="veh515" depart="515.00">
        <route edges="A1A0 A0B0"/>
    </vehicle>
    <vehicle id="veh518" depart="518.00">
        <route edges="A0B0 B0B1 B1A1 A1A0"/>
    </vehicle>
    <vehicle id="veh523" depart="523.00">
        <route edges="A0A1 A1B1 B1B0 B0A0"/>
    </vehicle>
    <vehicle id="veh524" depart="524.00">
        <route edges="B1B0 B0A0 A0A1"/>
    </vehicle>
    <vehicle id="veh525" depart="525.00">
        <route edges="B1A1"/>
    </vehicle>
    <vehicle id="veh526" depart="526.00">
        <route edges="B0A0 A0A1 A1B1"/>
    </vehicle>
    <vehicle id="veh527" depart="527.00">
        <route edges="B1B0 B0A0 A0A1"/>
    </vehicle>
    <vehicle id="veh528" depart="528.00">
        <route edges="A1B1"/>
    </vehicle>
    <vehicle id="veh530" depart="530.00">
        <route edges="B1B0 B0A0 A0A1"/>
    </vehicle>
    <vehicle id="veh531" depart="531.00">
        <route edges="A0A1 A1B1 B1B0 B0A0"/>
    </vehicle>
    <vehicle id="veh535" depart="535.00">
        <route edges="B0A0 A0A1 A1B1"/>
    </vehicle>
    <vehicle id="veh536" depart="536.00">
        <route edges="B0A0 A0A1"/>
    </vehicle>
    <vehicle id="veh537" depart="537.00">
        <route edges="B0B1 B1A1"/>
    </vehicle>
    <vehicle id="veh538" depart="538.00">
        <route edges="B0B1 B1A1"/>
    </vehicle>
    <vehicle id="veh539" depart="539.00">
        <route edges="B0B1 B1A1 A1A0 A0B0"/>
    </vehicle>
    <vehicle id="veh542" depart="542.00">
        <route edges="A1B1 B1B0 B0A0 A0A1"/>
    </vehicle>
    <vehicle id="veh544" depart="544.00">
        <route edges="A1A0 A0B0"/>
    </vehicle>
    <vehicle id="veh545" depart="545.00">
        <route edges="B1B0 B0A0 A0A1"/>
    </vehicle>
    <vehicle id="veh549" depart="549.00">
        <route edges="B0A0"/>
    </vehicle>
    <vehicle id="veh551" depart="551.00">
        <route edges="A1A0 A0B0 B0B1"/>
    </vehicle>
    <vehicle id="veh552" depart="552.00">
        <route edges="B1A1"/>
    </vehicle>
    <vehicle id="veh556" depart="556.00">
        <route edges="B0B1 B1A1 A1A0 A0B0"/>
    </vehicle>
    <vehicle id="veh558" depart="558.00">
        <route edges="A1A0 A0B0 B0B1 B1A1"/>
    </vehicle>
    <vehicle id="veh564" depart="564.00">
        <route edges="A1A0 A0B0"/>
    </vehicle>
    <vehicle id="veh565" depart="565.00">
        <route edges="B0B1 B1A1 A1A0"/>
    </vehicle>
    <vehicle id="veh570" depart="570.00">
        <route edges="B0B1 B1A1 A1A0 A0B0"/>
    </vehicle>
    <vehicle id="veh572" depart="572.00">
        <route edges="A1A0 A0B0 B0B1"/>
    </vehicle>
    <vehicle id="veh574" depart="574.00">
        <route edges="A0A1"/>
    </vehicle>
    <vehicle id="veh576" depart="576.00">
        <route edges="B0B1 B1A1 A1A0"/>
    </vehicle>
    <vehicle id="veh583" depart="583.00">
        <route edges="A1B1 B1B0 B0A0"/>
    </vehicle>
    <vehicle id="veh585" depart="585.00">
        <route edges="A0B0"/>
    </vehicle>
    <vehicle id="veh586" depart="586.00">
        <route edges="A1A0"/>
    </vehicle>
    <vehicle id="veh590" depart="590.00">
        <route edges="B1A1"/>
    </vehicle>
    <vehicle id="veh592" depart="592.00">
        <route edges="A0A1"/>
    </vehicle>
    <vehicle id="veh594" depart="594.00">
        <route edges="B0A0"/>
    </vehicle>
    <vehicle id="veh596" depart="596.00">
        <route edges="A0A1"/>
    </vehicle>
    <vehicle id="veh597" depart="597.00">
        <route edges="A1A0 A0B0 B0B1 B1A1"/>
    </vehicle>
    <vehicle id="veh599" depart="599.00">
        <route edges="B1B0 B0A0 A0A1"/>
    </vehicle>
    <vehicle id="veh600" depart="600.00">
        <route edges="B1A1 A1A0 A0B0"/>
    </vehicle>
    <vehicle id="veh601" depart="601.00">
        <route edges="B0A0"/>
    </vehicle>
    <vehicle id="veh603" depart="603.00">
        <route edges="A1A0"/>
    </vehicle>
    <vehicle id="veh605" depart="605.00">
        <route edges="A0A1 A1B1 B1B0 B0A0"/>
    </vehicle>
    <vehicle id="veh607" depart="607.00">
        <route edges="B0B1 B1A1"/>
    </vehicle>
    <vehicle id="veh608" depart="608.00">
        <route edges="B1A1 A1A0 A0B0"/>
    </vehicle>
    <vehicle id="veh609" depart="609.00">
        <route edges="A0B0"/>
    </vehicle>
    <vehicle id="veh611" depart="611.00">